59
Lattice="     27.08279991       0.00000000       0.00000000       0.00000000      27.08760071       0.00000000       0.00000000       0.00000000      21.77420044" Properties=species:S:1:pos:R:3
A 10.4392996 9.7984505 10.1111002
A 10.9439002 13.316 10.7012997
B 9.4071598 13.0032997 10.4531002
B 12.2792997 12.3634005 10.3330002
A 10.8653002 10.5513001 10.6887999
A 11.3992005 11.4647999 9.0166101
A 12.3170004 9.8993196 9.27458
A 12.0908003 12.415 9.4258204
A 11.0557003 9.4980002 8.3658304
B 9.5731497 12.0838003 10.5976
A 9.4896002 12.5831003 8.30515
A 12.4828997 11.3281002 9.5228005
A 10.1379995 11.3635998 10.7286997
A 11.3209 12.2825003 10.4777003
A 12.9471998 12.7355004 9.93219
A 11.3238001 9.5813904 9.3643904
B 13.0247002 13.0521002 9.12992
A 9.9317198 10.6597004 9.9077302
B 9.3383904 11.1587 9.4388504
B 9.8784704 10.4722004 8.3573799
B 12.4259997 10.4447003 10.0479002
B 13.3427 11.4986 9.7436896
A 12.2327004 13.4888001 9.5192204
A 11.9323998 12.8674002 8.4453001
A 13.2932997 10.5158997 8.4272805
A 10.8999004 12.2577 9.5409603
B 11.4111996 12.4047003 8.8908006
B 11.7087002 11.7949 9.8199902
A 11.0936003 10.5557003 8.6252003
B 9.7618199 9.8232203 9.6683998
A 10.2695999 11.1266003 8.9610796
A 11.9283 13.1697998 10.4904003
A 12.7608004 11.7466002 10.5890999
A 10.8795004 11.3135996 9.9448004
A 12.1939001 10.7090998 8.6247397
A 10.9586 13.1480999 8.8593198
B 13.0867996 12.5510998 10.7967997
B 11.4847002 12.9327002 9.8199997
B 11.7336998 9.91638 8.5717497
A 9.9818698 12.8028002 9.22573
A 10.5838003 12.1499004 8.4717198
A 10.3212004 9.9523296 9.0464296
A 13.3330002 10.9302998 10.7150002
A 13.4245005 9.5812798 9.0374098
A 11.7938004 11.2287998 10.4607001
A 11.6255999 10.6398001 9.58883
A 11.8512002 9.8392802 10.4000998
A 9.3836804 10.3681002 9.0111198
B 13.0325003 11.2833004 8.8234797
A 13.1695995 10.6074 9.5405798
A 13.2024002 12.0928001 9.0792198
A 9.4583102 9.2872 10.3024998
A 9.8719702 10.3015003 10.8694
B 10.6194 13.0885 9.7366801
B 10.8205996 10.4306002 9.5677796
A 9.9178696 11.7627001 9.7040797
A 12.3585997 11.8448 8.4945297
A 10.1682997 12.6309004 10.3069
A 12.8442002 9.6740904 10.0911999
57
Lattice="     27.07270050       0.00000000       0.00000000       0.00000000      27.07239914       0.00000000       0.00000000       0.00000000      21.76140022" Properties=species:S:1:pos:R:3
A 10.6385002 9.85462 10.1026001
A 11.8978004 13.3633003 10.7378998
B 10.0422001 13.5040999 9.8600798
B 12.5008002 12.0774002 10.3445997
A 10.2560997 10.6185999 10.8251
A 11.4181996 11.3357 8.9117404
A 12.0796003 9.3584604 10.3905001
A 12.1076002 11.8988 9.5257397
A 11.2188997 12.9531002 8.7208004
A 12.1162005 9.3844099 9.1632299
B 10.6851998 12.5998001 10.1553001
A 9.6979103 12.6543999 8.49082
A 9.6326103 11.3607998 8.5303498
A 13.1386004 12.1950998 9.6230202
A 11.5543003 12.3044996 10.3119002
A 13.2165003 12.5003996 10.6289997
A 11.8339005 10.4415999 8.6447897
A 9.98699 10.9225998 9.5520802
B 13.2524996 10.6295996 9.9445802
B 13.1364002 13.0249004 9.3880901
B 12.7968998 13.2230997 10.7236996
A 12.4203997 12.8244 8.9079304
A 9.7409697 12.7151003 10.1701002
A 13.0906 11.2284002 9.29
A 11.0122004 12.2159996 9.3391104
B 11.7135 12.1814003 8.75733
B 11.4328003 11.5411997 9.7954397
A 10.4082003 13.2568998 10.6823998
A 11.0930004 10.6866999 9.8432398
A 9.28685 10.4111004 8.2520399
A 10.6590996 10.6342001 8.7649899
A 12.4890003 12.9073 9.9470902
A 11.1977997 13.2750998 9.9979696
A 13.0588999 11.4159002 10.3947001
A 10.6731005 11.6183005 10.1662998
A 13.0403004 10.085 9.2230396
B 11.7754002 12.8200999 9.4998503
B 12.2813997 10.9635 9.3198996
A 10.3116999 12.9798002 9.2619896
A 10.6014996 11.8251 8.5542698
A 10.929 9.6623297 9.1289501
A 11.8999996 11.1978998 10.3920002
A 12.2290001 10.3592997 9.9799404
A 11.3720999 10.3627997 10.7533999
A 9.6467505 9.91037 9.1446505
B 13.0952997 12.1398001 8.7068701
B 9.2029495 12.2482996 10.6665001
A 12.8929006 10.7550001 8.3392897
A 13.5222998 12.9124002 8.6713896
A 9.5169001 10.1303997 10.1209002
B 9.4172802 12.7066002 9.3117399
B 11.4850998 9.9011602 9.7281599
A 9.9174404 12.0024004 9.4191799
A 12.3406 11.6352997 8.5157099
A 9.61936 11.5067997 10.3185997
B 10.6583004 11.3838997 9.3311501
A 13.2229004 9.75737 10.4427004
60
Lattice="     27.07169914       0.00000000       0.00000000       0.00000000      27.07139969       0.00000000       0.00000000       0.00000000      21.76200104" Properties=species:S:1:pos:R:3
A 10.5952997 9.7184296 10.5154
A 11.3344002 13.481 9.67663
B 9.8487102 13.4621001 9.4312296
B 12.0663996 11.8036003 9.6086502
A 11.6548004 9.4949999 10.7364998
A 11.3678999 11.3556004 9.1793804
A 11.3668003 13.3717003 8.6482001
B 10.5556002 12.4091997 10.0129004
A 9.6738301 13.2589998 8.5627899
A 9.3554096 11.6984997 9.3255501
A 12.9996996 11.7643996 9.5184498
A 9.8713704 12.2124004 10.6626997
A 11.3403998 12.2678003 9.7629404
A 10.4317999 9.6922999 8.31182
A 12.1141005 9.8354798 8.9807396
B 9.9476806 13.3221998 10.8781996
A 12.6772003 13.4196997 8.5915699
A 10.6483002 10.6452999 9.67307
B 9.3995505 10.7626 9.5163098
B 12.8553 10.8723002 9.9693404
B 12.8597002 12.9866 10.3704996
A 12.1310997 12.7280998 9.20541
A 9.62572 12.6799002 9.7873602
A 12.3170996 10.8135004 9.2648602
A 11.2769003 12.2987003 8.6640196
B 11.9467002 12.7538004 8.3497296
B 11.5421 10.5702 9.67451
B 9.6197005 9.9687406 8.7291203
A 11.2233 10.3195 8.7233897
A 9.8337899 10.8929006 8.7867604
B 11.7229996 11.9520998 10.5958004
B 10.5719996 10.7875004 10.6323004
A 12.3945999 12.3260002 10.2037001
A 13.1717997 11.5347004 10.4708996
A 11.0847998 11.3762999 10.2307997
A 13.1637001 10.2438002 9.2362099
A 13.1170998 12.8795996 9.5313101
B 11.7772999 11.0113001 8.5600205
A 10.6075001 12.8620996 9.2632704
A 10.3418999 11.9287996 8.3443699
A 13.3495999 10.5433998 10.6873999
B 13.2797003 9.49613 9.7152901
A 12.1066999 11.2109003 10.1946001
A 12.3612003 9.99751 9.9724504
A 11.4055996 10.4900999 10.5305996
A 10.3036003 9.7491904 9.2762203
B 10.5156002 13.2140999 8.36973
B 13.3143997 11.1538 8.8300305
B 11.8645 12.9962998 10.2130003
A 12.6134005 10.7810002 8.29245
A 9.7244702 10.1339998 10.0059004
B 9.9298296 12.4427996 9.02143
B 13.0142002 12.2824001 8.7993698
A 11.3409996 9.7602701 9.7481003
A 10.4054003 11.8261004 9.39643
A 12.2615004 11.7817002 8.6483002
A 9.98059 11.2238999 10.2004004
B 10.6148997 11.1920996 8.7228499
A 11.0029001 12.8268996 10.5892
A 13.1468 9.5418501 10.5829001
60
Lattice="     27.06470108       0.00000000       0.00000000       0.00000000      27.07089996       0.00000000       0.00000000       0.00000000      21.76219940" Properties=species:S:1:pos:R:3
A 10.9575996 9.85318 10.2446003
A 11.2645998 13.2714996 9.6904297
B 9.5493002 13.1097002 9.8388596
B 12.3656998 11.6310997 9.5662403
A 10.3114004 10.4762001 10.8410998
A 11.9947996 9.4490805 10.3059998
A 11.6016999 11.2845001 9.3795405
A 11.5338002 13.1876001 8.6141196
B 10.5376997 11.9397002 10.7454996
A 13.1906996 11.9232998 9.2625599
A 10.0249004 12.5051003 10.3364
A 11.5649004 12.2229004 9.9523802
A 10.2439003 10.2111998 8.4470301
A 12.2802 9.9309302 8.5513697
B 10.1987 13.2754002 10.7123003
A 12.6695004 13.4024 8.6597204
A 10.6808005 10.7289 9.6667805
B 9.5530901 10.7702999 8.3893099
B 13.2439003 10.3351002 9.7094698
A 12.2285004 12.5608998 9.1295796
A 12.6203003 10.8034001 9.2368002
A 11.1504002 12.2775002 8.9266902
B 11.9759998 12.4034004 8.3480902
B 11.4712 10.7390003 10.1084995
B 9.91387 9.9993096 9.1629
A 11.2095003 10.6015997 8.6704998
A 9.4097004 13.2516003 10.6707001
B 11.2924004 9.6569901 8.4874401
A 9.8729096 11.1660996 9.1214304
B 11.8268004 13.0911999 10.3757
A 12.6365996 12.2124996 10.1135998
A 12.4654999 13.4221001 9.8322497
A 12.7851 12.9209996 10.8153
A 13.0860996 11.2599001 10.1562996
A 11.0514002 11.3368998 10.5095997
A 13.3185997 10.2145004 8.7136698
A 13.3009005 12.9524002 9.4721403
B 10.7813998 12.5918999 9.9295702
B 12.0309 10.8785 8.6054297
A 10.2883997 12.9011002 9.3498898
A 10.0233002 12.1935997 8.6324597
A 9.9366302 9.2972603 9.7740002
A 12.0767002 11.3381004 10.3563995
A 12.8623 9.6099596 9.5028897
A 10.7612 9.7447996 9.2210302
B 10.7131996 13.0506001 8.6013003
B 13.3898001 11.0942001 8.8173304
B 9.5017405 10.7189999 10.7624998
A 12.5648003 10.3546 10.3620005
A 9.6142502 10.2744999 9.92729
A 9.8319397 9.5658398 10.8441
B 9.83562 12.2109003 9.5569201
B 13.1596003 12.6170998 8.7314196
A 11.7918997 10.1941996 9.5162602
A 10.6127005 11.8086005 9.6095305
A 12.3266001 11.6464997 8.65905
A 9.88799 11.3311997 10.2145004
B 10.8617002 11.3618002 8.8748598
A 10.9586 12.8707 10.7019997
A 12.8894998 9.4089098 10.776
65
Lattice="     27.06270027       0.00000000       0.00000000       0.00000000      27.06250000       0.00000000       0.00000000       0.00000000      21.75450134" Properties=species:S:1:pos:R:3
A 10.8093996 9.7983198 10.1744003
A 11.4783001 13.4457999 10.0064001
B 9.33072 13.4989004 10.2270002
B 12.1946001 11.6880999 9.5506802
A 10.3865004 10.7910004 10.2833996
A 11.8789998 9.22859 10.2949
A 13.3761997 12.7824002 10.4991999
A 11.5595999 11.0848999 9.2776404
A 11.4075003 13.1897001 8.9209004
B 10.8063002 11.2953997 9.6754504
A 10.0445995 13.2966995 8.7183399
A 9.2154598 11.7301998 8.5686503
A 12.9350004 11.8825998 9.1593103
A 10.3352003 11.8576002 10.1634998
A 11.4531002 12.0998001 10.0618
B 12.2325001 13.3055 9.0582705
A 12.3271999 9.9347602 8.6027603
B 10.8199997 12.0537005 10.809
A 10.6261997 10.2928 9.3056297
B 13.3197003 10.3266001 9.5760699
B 12.5268002 10.7228003 10.8553
A 12.0637999 12.4900999 9.2858601
A 9.28086 12.8641006 9.5032797
A 12.6997004 12.7089005 8.41992
A 12.6596003 10.8165999 9.2691403
A 11.0516005 12.1377001 9.0253
B 13.3894997 11.7875004 9.9907704
B 11.8267002 12.6448002 8.4464903
B 11.2212 10.5949002 9.9804898
A 10.2869997 13.1760998 9.7815504
B 9.8355398 9.7395001 8.8866502
A 11.2191 10.4074001 8.3982
A 10.2073002 10.2898998 8.3184099
B 11.7511997 12.7734003 10.5129996
A 12.5452004 12.1996002 10.2062998
A 12.4756003 13.2200003 10.2089005
A 13.1903 11.0202999 10.2897997
A 11.2283001 11.2084999 10.7355004
A 13.4776001 10.2222996 8.7092104
A 13.1596003 12.8919002 9.41994
A 13.0183001 9.20823 8.2264404
B 10.9679004 12.7454996 9.7136097
B 12.0811005 10.8086005 8.4666596
A 9.9938402 12.2303 9.1969099
A 10.0101995 13.5178004 10.7621002
A 12.0200996 11.1787996 10.1672001
A 12.9370004 9.5224705 9.3505402
A 11.7510996 10.2679997 10.6443005
A 9.3221398 10.6843996 8.7718601
A 11.1503 9.3019896 8.9153796
B 10.5756998 12.8275996 8.25698
B 13.2011995 11.1360998 8.6691599
B 9.66992 11.3219004 10.5860996
A 12.5911999 10.0748997 10.1231003
A 9.7170401 10.0972004 9.7589903
A 9.9519596 9.4375601 10.7025004
B 9.5694103 12.5901003 8.48456
B 13.4805002 12.3957005 8.74574
A 11.6541004 10.0021 9.5572996
A 10.4341002 11.2598 8.8306198
A 12.0691996 11.6962004 8.5812302
A 9.6551399 11.2524004 9.6022501
B 11.2707996 11.3964996 8.4684201
A 10.8079005 12.8751002 10.6136999
A 13.0987997 9.2698803 10.5054999
64
Lattice="     27.06380081       0.00000000       0.00000000       0.00000000      27.06150055       0.00000000       0.00000000       0.00000000      21.75479889" Properties=species:S:1:pos:R:3
B 11.5390997 9.4917202 10.7868996
B 9.86648 10.5240002 10.1948004
A 10.7034998 9.9038602 10.3301001
B 12.2271004 12.0086002 9.7339096
A 10.5100003 11.1946001 10.4928999
A 13.1293001 12.5677996 10.5149002
A 11.3064003 11.1941996 9.17167
B 10.5704003 11.6159001 9.5361099
A 9.6945496 13.1963997 8.6951399
A 9.2023296 11.8632002 8.90763
A 13.5038996 12.7735005 8.2312803
A 12.7103005 12.6857996 9.3930197
A 10.5932999 12.7104998 9.7761698
A 11.3353996 11.8169003 9.9940206
A 11.4818001 9.8393898 8.4652205
B 11.9350996 12.0481005 10.7988005
A 13.4421997 11.9576998 8.9555702
A 10.2811003 11.1225996 8.5300102
B 10.5747004 12.0656004 10.4039002
A 11.1798 11.7065001 8.24018
B 12.0674 9.5559998 9.8138399
A 10.4176998 10.7017002 9.5229597
B 13.3574 10.1230002 9.8474998
A 12.4708004 13.2327995 8.4210501
A 13.1084004 11.1437998 9.5703402
A 11.7454996 12.4252005 8.9271804
B 10.2712002 13.0763998 10.5071001
B 13.1806002 11.9701996 9.8475704
B 12.6358996 12.3858996 8.5499602
B 11.2079001 10.915 9.9854804
A 9.9554702 13.5303002 9.7789898
B 11.4095001 9.28016 9.0668697
B 9.6162596 11.4033003 10.8724004
B 10.0366001 10.2585001 8.7856703
A 13.1018 9.2315102 8.5144501
A 9.4318199 9.6515703 8.5172005
B 11.4189997 12.8810998 9.6603804
A 12.7272997 11.6506996 10.4958
A 12.0186005 12.7149 10.2207003
A 13.3575001 10.7359 10.5333996
A 9.7697296 11.6048002 9.8268099
A 13.3396998 10.2811003 8.6864004
A 13.4412003 13.5095997 9.8607198
B 10.8946 10.5101996 8.8732204
A 10.8668004 12.9379998 8.7917805
A 9.76896 12.4272003 10.3886004
A 12.0726995 11.1027002 9.8336602
A 12.4865999 9.9657498 9.1532097
A 11.5855999 10.3971996 10.6476002
A 10.6030998 9.6475401 9.15551
B 12.9381 11.0716 8.6886997
B 12.5186005 9.9606504 8.2541399
A 12.1574001 10.7354002 8.5628205
A 12.4972 10.2716999 10.2219
A 9.6117296 9.9366798 9.5836296
A 9.6150799 9.5288601 10.7681999
B 9.6571799 12.6415005 9.4284497
A 11.5213003 10.1946001 9.4553805
A 10.1967001 12.1021996 8.9334298
A 12.4457999 11.6924 9.0147305
A 9.4078903 10.8437004 9.0275297
B 12.1198998 11.6391001 8.20156
A 11.0639 12.6574002 10.6388998
A 12.8929996 9.2835798 9.7378302
68
Lattice="     27.07139969       0.00000000       0.00000000       0.00000000      27.07069969       0.00000000       0.00000000       0.00000000      21.76150131" Properties=species:S:1:pos:R:3
B 9.6235399 10.0496998 10.2708998
A 10.9344998 9.3070603 10.6197005
A 11.2135 13.3806 9.7868004
B 11.4803 11.7714997 8.9642402
A 10.5403996 10.3350001 10.6813002
A 13.0381002 12.6824999 10.7475996
A 11.5613003 11.7038002 9.87076
B 11.5648003 10.7932997 9.9203702
A 12.4335003 12.1106997 9.3570604
A 10.1610003 13.4301996 9.5752201
A 11.0453997 12.3821001 9.3033505
B 12.9291 12.3683005 9.9867802
A 13.3943005 12.1838999 8.9805604
A 10.6129999 10.3396998 9.6348601
B 11.4399004 11.9353 10.6486998
A 10.8072996 11.2911997 9.2059298
B 12.3402996 10.4301996 9.5624399
A 9.4765301 10.9916 10.2249003
B 10.3195 11.8621998 8.7495299
B 13.151 10.7026997 10.0412998
A 12.6308003 13.4131003 8.3636198
A 9.6729899 13.1584997 10.4558001
A 13.2594004 11.5607004 9.8635502
A 10.4001999 10.4664002 8.24862
A 11.8859998 12.8627006 9.0209303
B 10.4833002 13.3371 10.3379002
B 12.8999004 11.8348999 10.7095003
B 12.6588002 12.5592003 8.5980902
B 10.9884996 9.5201702 9.7384196
B 11.6141005 9.5008402 8.7208996
A 9.7849703 11.1259003 8.7368403
B 10.0394001 11.0663996 9.5310803
A 12.9645004 9.35147 8.7508202
A 9.6752005 9.57796 8.5699101
B 11.7264004 12.5126 9.7877398
A 12.3521996 11.1271 10.1302996
A 12.2086001 12.2907 10.4547997
A 12.2289 13.3898001 10.0393
A 13.3669996 10.9799996 10.8457004
A 10.5772 11.4089003 10.1939001
A 13.1735001 10.5713997 9.17943
A 13.1314001 13.2112999 9.3758898
A 11.3591004 11.0771999 10.6994
A 10.8253002 13.3417997 8.7807999
A 9.6945601 12.1018 10.6758003
B 13.3446999 9.2083597 10.3193998
A 11.8419 11.0333996 9.1049299
A 12.2685003 10.2040005 8.6935597
A 11.9176998 10.1416998 10.3718004
A 10.7581997 9.6864004 8.7773104
B 12.7868996 11.3448 9.0055399
A 11.0486002 12.1681995 8.2717104
B 11.6004 12.9343996 10.5775004
B 11.9280996 10.8823996 8.3017998
B 9.21171 11.8239002 10.1191998
A 13.0045004 9.9817896 10.5572005
A 10.0777998 9.3987398 9.6941405
A 9.7903099 9.2650499 10.7193003
B 10.0207996 12.5633002 9.9092302
B 13.4154997 13.0240002 8.4930296
A 11.5593004 10.0284996 9.3984003
A 9.9850702 12.7381001 8.8431102
A 12.2033005 11.7304001 8.3984299
A 9.7897997 11.8761998 9.51649
B 11.1461001 10.5604 8.7536497
A 10.7774 12.5242005 10.3583002
A 12.5595999 9.62218 9.7533798
A 9.4541502 10.2678003 9.3994398
66
Lattice="     27.06690025       0.00000000       0.00000000       0.00000000      27.06349945       0.00000000       0.00000000       0.00000000      21.75709915" Properties=species:S:1:pos:R:3
B 10.0525999 10.2346001 10.1862001
A 11.6252003 9.8273802 10.6387997
A 11.0943003 13.5181999 10.1253004
B 11.2613001 12.6218996 8.8079596
A 10.6616001 10.8252001 10.3673
A 13.1070995 13.0689001 10.7201996
A 11.6480999 11.7978001 9.9240198
B 11.0117998 11.1913996 9.7002898
A 11.717 9.5916405 9.67099
A 12.4892998 12.3893004 9.8240099
A 10.8514996 12.6443997 9.6300001
A 13.3633003 12.4889002 8.99611
A 10.2550001 11.0409002 9.2721901
B 11.2496996 12.2620001 10.6511002
A 11.0748997 11.6631003 8.9589196
B 13.4291001 11.9533998 8.2162304
B 12.3458996 10.2086001 9.7473297
A 9.62918 11.1796999 10.1370001
B 10.1633997 11.6900997 8.6669102
B 12.2014999 11.5548001 10.6279001
A 9.4542303 13.4175997 10.3739004
A 13.2220001 11.6730004 9.92383
A 11.8205004 13.2150002 9.1807404
B 13.1527004 12.1376 10.6815005
B 12.6269999 12.8487998 8.9069902
B 11.1054001 10.1868 10.0029001
B 11.691 9.7809696 8.7636004
B 12.8391 10.9224006 10.0853004
A 9.3203297 11.1992998 8.6801796
B 9.4975004 10.6742001 9.3353205
A 13.2308998 9.5757103 8.5117197
A 9.63797 9.3660097 8.4677
A 9.3242798 13.3701 9.0661697
B 11.6475001 12.7938004 9.9707804
A 12.0986004 12.4668999 10.7901001
A 12.2083998 13.4090004 10.2847996
A 10.5979996 11.8777 10.1970997
A 13.2236004 10.5460997 9.4847298
A 13.0278997 13.3914003 9.6004496
A 10.6405001 9.4128704 9.9338304
A 11.3769999 11.4231997 10.8710004
A 10.9343004 13.3998003 8.8253603
A 9.6673699 12.2374001 10.6136999
B 13.2642002 9.3242598 10.5311003
A 12.2918997 11.2223997 9.30546
A 12.3982 10.2061005 8.84787
A 11.7805004 10.7813998 10.1503
A 9.8851004 10.3087998 8.4326
A 10.8277998 9.6585198 8.77003
B 12.8462 11.8616 9.1195698
A 9.2169504 9.2515202 9.4542599
A 12.7973004 11.4450999 8.32481
B 11.5274 13.2341004 10.8407002
B 11.8017998 10.9982996 8.6152497
A 12.8670998 10.1487999 10.5541001
A 10.0142002 10.0131998 9.40164
A 9.6226397 9.4990101 10.4307003
B 9.9565898 12.7301998 9.85559
A 11.3987999 10.5188999 9.1990099
A 10.0869999 12.6405001 8.7518196
A 12.1135998 12.1945 8.8504
B 13.1954002 10.6899996 8.5283098
A 9.71978 11.9609004 9.4680405
B 10.7087002 10.5319996 8.7558604
A 10.5023003 12.8423996 10.6393004
A 12.8516998 9.5695896 9.54916
67
Lattice="     27.05710030       0.00000000       0.00000000       0.00000000      27.05730057       0.00000000       0.00000000       0.00000000      21.75130081" Properties=species:S:1:pos:R:3
B 12.2187996 9.9625398 9.8102999
B 9.8256197 9.7778998 10.2221003
A 11.9424 9.6254301 10.7592001
A 10.4568005 9.73555 10.8744002
B 10.5416003 11.7896004 8.7811404
A 10.1223002 10.9048004 10.3529997
A 11.5428 11.8301001 9.9376402
B 10.8197003 11.1814003 9.9471904
A 11.4139004 9.5265904 9.5605202
A 12.3132 12.5492001 9.9463998
A 10.3155003 13.0820999 9.4943505
A 11.2736998 12.7872 10.0340004
A 11.2933998 10.4068003 8.3768101
A 10.1344004 13.0551996 8.3249703
A 12.7507 12.5732003 9.0361605
A 10.1314001 11.2058001 9.2718802
B 11.0281 12.2184 10.7761002
A 11.1896 11.1660004 9.10602
B 11.4547997 10.4125996 9.3557301
B 9.6738501 11.4133997 8.4654703
B 11.8646002 11.2643004 10.4905997
A 12.8021002 11.7054997 10.3136997
A 10.4372998 11.0080996 8.28051
A 13.0675001 13.4911003 9.6466303
B 11.7952996 12.9448004 9.2812796
B 11.1447001 9.6069403 10.3767996
A 12.7523003 11.8665 8.2404604
B 11.3527002 9.4372101 8.4945803
B 10.0593004 11.8714 10.7837
B 12.9540006 10.9567004 9.7067604
A 12.0123997 12.7834997 8.3029604
B 9.2965698 10.8178997 9.5181904
A 13.0494003 9.3016501 8.7530899
A 9.4019299 9.5158901 8.5707999
A 9.2013798 13.1260996 9.2867003
B 12.7277003 13.2072001 10.3900004
A 11.9016 12.1402998 10.8458004
B 13.1597996 9.2621498 9.7479897
A 10.5187998 12.0857 9.9105102
A 13.1830998 10.1363001 9.3464003
A 10.4721003 9.24646 9.96836
A 11.0319996 11.3607998 10.7517996
B 11.1322002 12.9749002 8.32549
A 11.1576004 12.4582997 8.9940902
B 10.7952004 10.5353003 10.7621002
B 12.7756005 9.7267199 10.4298001
A 12.1294003 10.9641 9.5954104
A 12.2628002 10.092 8.9106998
A 11.6021004 10.4871998 10.4018002
A 9.55581 10.5790005 8.5765305
A 13.3058996 11.7613001 9.2992697
A 10.5154 9.67589 8.6633597
B 12.4403 11.8127003 9.4617396
A 9.3352499 9.2004995 9.7421799
A 12.8452998 10.9917002 8.8620996
B 11.1409998 13.3779001 10.7853003
B 11.9495002 10.9055004 8.68046
A 12.7023001 10.5454998 10.4569998
A 9.8203097 10.1148996 9.4650002
B 9.6243696 12.6540003 9.9142704
A 10.7566996 10.2908001 9.8304901
A 9.7735005 12.1890001 9.0381699
A 11.9232998 11.7834997 8.8429004
B 13.0285997 10.2207003 8.3537102
A 9.4350701 11.7664004 10.0834999
B 10.4820996 10.5040999 9.0033998
A 10.3831997 12.8641006 10.5712996
69
Lattice="     27.05450058       0.00000000       0.00000000       0.00000000      27.05889893       0.00000000       0.00000000       0.00000000      21.75070000" Properties=species:S:1:pos:R:3
B 12.3002997 10.3424997 10.0910997
B 9.92661 9.9469996 10.3916998
A 11.7530003 10.0288 10.776
A 10.6819 9.9329796 10.7528
B 10.3664999 11.9827996 8.6424704
A 10.1459999 10.8883 10.4061003
A 11.7398005 11.9777002 9.62566
B 10.7303 11.2612 9.6786099
A 11.4736004 9.8562298 9.7808399
B 9.2102699 12.7470999 8.4217701
A 12.6835003 12.7399998 9.4777098
A 10.3022003 13.0742998 9.6169796
A 11.7173996 13.0172005 9.9494306
A 10.1338997 12.9236002 8.5504999
A 12.8944998 12.5691996 8.4561796
A 10.0312996 11.1524 9.2341099
B 12.5529003 12.6950999 10.3072004
A 11.0894003 11.5165997 8.9260902
B 13.4511004 12.0172997 8.2183705
B 11.8511 10.4003 9.2308197
B 9.6328802 11.3713999 8.5170698
B 12.0084 11.4027996 10.3191996
A 12.1069002 13.4433003 8.8752098
B 13.3959999 11.7439003 10.6709004
A 12.7458 11.8261996 10.0086002
B 10.231 13.3642998 10.5608998
B 11.8832998 12.6750002 9.1211395
B 11.3375998 9.2752199 10.5326996
A 12.8247004 11.3407002 8.3666401
B 11.2595997 9.61866 8.34338
B 10.1028004 11.8540002 10.5928002
B 13.1225996 11.0439997 9.7488404
B 9.45117 10.8527002 9.7779703
A 12.9456998 9.3602696 8.6234303
A 9.65376 9.49714 8.5520802
A 12.6990996 11.0424995 10.7258997
A 11.8683004 12.2215004 10.8198004
A 12.4677 10.3657999 8.4986696
A 10.4941998 12.0612001 9.8215599
A 13.2357998 9.2210302 10.0459995
A 10.4726 9.3614102 9.9150802
A 10.9898996 11.5714998 10.5709
B 11.0451002 13.1588001 8.3565998
A 11.0193005 12.5036001 8.9460898
A 9.7306299 12.5997 10.6564999
A 11.9520998 9.5642205 8.8951102
B 10.6645003 10.2393999 9.94796
B 12.5751 9.2324495 9.3753204
A 12.2874003 11.1106005 9.3522101
A 12.7299996 10.1070004 9.4077397
A 11.3894997 10.8237 10.0847998
A 9.5502796 10.4918003 8.2862396
A 13.4916001 11.7699003 9.1215
A 10.7187996 9.5789604 8.9374704
B 12.6069002 11.9027004 9.1184998
A 13.4960003 10.7388001 9.1304503
B 11.4231005 13.2690001 10.7636996
B 11.7924996 11.1279001 8.5478401
B 9.2579298 11.1338997 10.6210003
A 9.9049302 10.1169005 9.4259901
B 9.6551905 12.5571003 9.8179398
A 10.9841996 10.5481997 9.1500301
A 9.5523396 12.1504002 9.0903597
A 12.0625 11.9909 8.4467497
B 13.3477001 10.0895996 8.6301298
A 9.5347996 11.6877003 10.0100002
B 10.2452002 10.2568998 8.6640902
A 10.8093996 12.625 10.7089997
A 12.2421999 9.2919502 10.2116003
